MESH_FILENAME= teste.su2
SOLVER= EULER
MARKER_EULER= (airfoil)
MARKER_FAR= (farfield)
CONV_NUM_METHOD_FLOW = JST
MACH_NUMBER= 0.3
AOA= 1.25
OBJECTIVE_FUNCTION= DRAG
ITER= 1000
HISTORY_OUTPUT= (AERO_COEFF)