MESH_FILENAME= teste.su2
SOLVER= EULER
MARKER_EULER= (airfoil)
MARKER_FAR= (farfield)
CONV_NUM_METHOD_FLOW = JST
MACH_NUMBER= 0.3
AOA= 1.25
TIME_DOMAIN= YES
TIME_STEP= 0.0001
TIME_ITER=10000
TIME_MARCHING= TIME_STEPPING
MAX_TIME= 1
HISTORY_OUTPUT= (AERO_COEFF)